farnesyl_sat.pdb
 OpenBabel07241814533D

 47 46  0  0  1  0  0  0  0  0999 V2000
   -1.7100    9.4390    1.0900 C   0  0  0  0  0  0  0  0  0  0  0  0
   -1.6880    8.7310   -1.4210 C   0  0  0  0  0  0  0  0  0  0  0  0
   -1.5890    8.3130    0.0530 C   0  0  0  0  0  0  0  0  0  0  0  0
   -2.7120    7.2970    0.3300 C   0  0  0  0  0  0  0  0  0  0  0  0
   -2.2410    5.8870   -0.0720 C   0  0  0  0  0  0  0  0  0  0  0  0
   -2.1450    5.7950   -1.6060 C   0  0  0  0  0  0  0  0  0  0  0  0
   -2.6370    4.4110   -2.0690 C   0  0  2  0  0  0  0  0  0  0  0  0
   -2.8700    3.5100   -0.8420 C   0  0  0  0  0  0  0  0  0  0  0  0
   -1.5780    3.7690   -2.9850 C   0  0  0  0  0  0  0  0  0  0  0  0
   -2.0920    2.4080   -3.4900 C   0  0  0  0  0  0  0  0  0  0  0  0
   -1.0450    1.7780   -4.4280 C   0  0  0  0  0  0  0  0  0  0  0  0
   -1.5710    0.4310   -4.9550 C   0  0  1  0  0  0  0  0  0  0  0  0
   -0.5310   -0.1910   -5.9050 C   0  0  0  0  0  0  0  0  0  0  0  0
   -1.8200   -0.5230   -3.7710 C   0  0  0  0  0  0  0  0  0  0  0  0
   -1.0640   -1.5310   -6.4450 C   0  0  0  0  0  0  0  0  0  0  0  0
   -2.9610    7.3090    1.3910 H   0  0  0  0  0  0  0  0  0  0  0  0
   -0.5820    7.9150    0.1740 H   0  0  0  0  0  0  0  0  0  0  0  0
   -2.7640    6.5700   -2.0570 H   0  0  0  0  0  0  0  0  0  0  0  0
   -3.5950    7.5640   -0.2520 H   0  0  0  0  0  0  0  0  0  0  0  0
   -2.9530    5.1470    0.2940 H   0  0  0  0  0  0  0  0  0  0  0  0
   -1.2610    5.6940    0.3650 H   0  0  0  0  0  0  0  0  0  0  0  0
   -2.6670    4.0760    0.0680 H   0  0  0  0  0  0  0  0  0  0  0  0
   -1.1090    5.9330   -1.9140 H   0  0  0  0  0  0  0  0  0  0  0  0
   -1.3860    4.4230   -3.8350 H   0  0  0  0  0  0  0  0  0  0  0  0
   -3.5710    4.5230   -2.6190 H   0  0  0  0  0  0  0  0  0  0  0  0
   -2.2030    2.6490   -0.8910 H   0  0  0  0  0  0  0  0  0  0  0  0
   -3.9050    3.1680   -0.8340 H   0  0  0  0  0  0  0  0  0  0  0  0
   -2.2640    1.7460   -2.6410 H   0  0  0  0  0  0  0  0  0  0  0  0
   -0.6550    3.6220   -2.4240 H   0  0  0  0  0  0  0  0  0  0  0  0
   -0.8580    2.4490   -5.2660 H   0  0  0  0  0  0  0  0  0  0  0  0
   -3.0260    2.5510   -4.0330 H   0  0  0  0  0  0  0  0  0  0  0  0
   -1.6460    0.0070   -2.8350 H   0  0  0  0  0  0  0  0  0  0  0  0
   -0.1170    1.6160   -3.8790 H   0  0  0  0  0  0  0  0  0  0  0  0
   -0.3460    0.4890   -6.7370 H   0  0  0  0  0  0  0  0  0  0  0  0
   -2.5050    0.5910   -5.4940 H   0  0  0  0  0  0  0  0  0  0  0  0
   -1.2420   -2.2130   -5.6130 H   0  0  0  0  0  0  0  0  0  0  0  0
    0.3990   -0.3620   -5.3630 H   0  0  0  0  0  0  0  0  0  0  0  0
   -1.1420   -1.3730   -3.8400 H   0  0  0  0  0  0  0  0  0  0  0  0
   -2.8510   -0.8770   -3.8020 H   0  0  0  0  0  0  0  0  0  0  0  0
   -0.3300   -1.9680   -7.1220 H   0  0  0  0  0  0  0  0  0  0  0  0
   -1.9970   -1.3610   -6.9810 H   0  0  0  0  0  0  0  0  0  0  0  0
   -2.3410   10.2460    0.7170 H   0  0  0  0  0  0  0  0  0  0  0  0
   -2.1860    9.0690    2.0130 H   0  0  0  0  0  0  0  0  0  0  0  0
   -0.7190    9.8570    1.3180 H   0  0  0  0  0  0  0  0  0  0  0  0
   -2.3460    8.0200   -1.9300 H   0  0  0  0  0  0  0  0  0  0  0  0
   -2.0940    9.7190   -1.5390 H   0  0  0  0  0  0  0  0  0  0  0  0
   -0.7040    8.6980   -1.8730 H   0  0  0  0  0  0  0  0  0  0  0  0
  1 42  1  0  0  0  0
  1 43  1  0  0  0  0
  1 44  1  0  0  0  0
  1  3  1  0  0  0  0
  2 45  1  0  0  0  0
  2 46  1  0  0  0  0
  2 47  1  0  0  0  0
  2  3  1  0  0  0  0
  3  4  1  0  0  0  0
  3 17  1  0  0  0  0
  4  5  1  0  0  0  0
  4 16  1  0  0  0  0
  4 19  1  0  0  0  0
  5  6  1  0  0  0  0
  5 20  1  0  0  0  0
  5 21  1  0  0  0  0
  6  7  1  0  0  0  0
  6 18  1  0  0  0  0
  6 23  1  0  0  0  0
  7  8  1  0  0  0  0
  7  9  1  0  0  0  0
  7 25  1  6  0  0  0
  8 22  1  0  0  0  0
  8 26  1  0  0  0  0
  8 27  1  0  0  0  0
  9 10  1  0  0  0  0
  9 24  1  0  0  0  0
  9 29  1  0  0  0  0
 10 11  1  0  0  0  0
 10 28  1  0  0  0  0
 10 31  1  0  0  0  0
 11 12  1  0  0  0  0
 11 30  1  0  0  0  0
 11 33  1  0  0  0  0
 12 13  1  0  0  0  0
 12 14  1  0  0  0  0
 12 35  1  6  0  0  0
 13 15  1  0  0  0  0
 13 34  1  0  0  0  0
 13 37  1  0  0  0  0
 14 32  1  0  0  0  0
 14 38  1  0  0  0  0
 14 39  1  0  0  0  0
 15 36  1  0  0  0  0
 15 40  1  0  0  0  0
 15 41  1  0  0  0  0
M  END
